.include "nominal.jsim"
.include "stdcell.jsim"
* .include "2dcheckoff_100ns.jsim"

* Single carry generate and carry propagate
* G_i = A_i * B_i --> do this with (nand + inv)
* P_i = A_i xor B_i
.subckt PG a b g p
Xp a b p xor2
Xg_inv a b ginv nand2
Xg ginv g inverter
.ends